Circuit: * F:\Electronique\Projets\Balance sur ruche\Elec\Simu\Simu.asc

Direct Newton iteration failed to find .op point.  (Use ".option noopiter" to skip.)
Starting Gmin stepping
Gmin = 10
Gmin = 1.07374
vernier = 0.5
vernier = 0.25
vernier = 0.125
vernier = 0.0625
Gmin = 1.08884
vernier = 0.03125
vernier = 0.015625
Gmin = 1.03523
vernier = 0.0078125
vernier = 0.0104167
vernier = 0.00520833
Gmin = 1.02119
vernier = 0.00260417
Gmin = 1.01391
vernier = 0.00347222
vernier = 0.00173611
vernier = 0.00231481
vernier = 0.00115741
Gmin = 1.01142
vernier = 0.00154321
vernier = 0.000771604
Gmin = 1.00928
vernier = 0.00102881
vernier = 0.000514403
Gmin = 1.00759
vernier = 0.00068587
vernier = 0.000514403
Gmin = 1.00638
vernier = 0.00068587
vernier = 0.000514402
Gmin = 0
Gmin = 0
Gmin stepping failed

Starting source stepping with srcstepmethod=0
Source Step = 3.0303%
Source Step = 33.3333%
Source Step = 63.6364%
Source Step = 93.9394%
Source stepping succeeded in finding the operating point.


Date: Thu Mar 18 18:41:11 2021
Total elapsed time: 0.647 seconds.

tnom = 27
temp = 27
method = modified trap
totiter = 6672
traniter = 96
tranpoints = 49
accept = 48
rejected = 1
matrix size = 48
fillins = 45
solver = Normal
Matrix Compiler1: 3.59 KB object code size  1.4/0.7/[0.3]
Matrix Compiler2: 4.70 KB object code size  1.7/2.5/[0.7]

